 .Sol file Watershed HRU:95 Subbasin:16 HRU:8 Luse:FRSD Soil: PTH1 Slope: 2-5 20/07/2012 12:00:00 AM ArcSWAT 2009.93.7
 Soil Name: PTH1
 Soil Hydrologic Group: C
 Maximum rooting depth(m) : 1000.00
 Porosity fraction from which anions are excluded: 0.500
 Crack volume potential of        0.00
 Texture 1                : CL, CL, SiC, SiCL
 Depth                [mm]:      250.00      440.00      500.00     1000.00
 Bulk Density Moist [g/cc]:        1.32        1.31        1.26        1.30
 Ave. AW Incl. Rock Frag  :        0.14        0.14        0.14        0.14
 Ksat. (est.)      [mm/hr]:        4.40        3.10        2.50        3.40
 Organic Carbon [weight %]:        2.55        0.81        0.70        0.05
 Clay           [weight %]:       31.00       35.00       42.00       37.00
 Silt           [weight %]:       48.00       40.00       40.00       48.00
 Sand           [weight %]:       21.00       25.00       18.00       15.00
 Rock Fragments   [vol. %]:        2.00        2.00        1.00        5.00
 Soil Albedo (Moist)      :        0.07        0.23        0.25        0.39
 Erosion K                :        0.16        0.16        0.16        0.16
 Salinity (EC, Form 5)    :        0.00        0.00        0.00        0.00
                              
