 .Sol file Watershed HRU:80 Subbasin:14 HRU:2 Luse:CORN Soil: HUO Slope: 0-2 20/07/2012 12:00:00 AM ArcSWAT 2009.93.7
 Soil Name: HUO
 Soil Hydrologic Group: C
 Maximum rooting depth(m) : 1000.00
 Porosity fraction from which anions are excluded: 0.500
 Crack volume potential of        0.00
 Texture 1                : CL, SiCL, SiCL, SiCL
 Depth                [mm]:      200.00      250.00      600.00     1000.00
 Bulk Density Moist [g/cc]:        1.25        1.41        1.47        1.61
 Ave. AW Incl. Rock Frag  :        0.22        0.12        0.06        0.03
 Ksat. (est.)      [mm/hr]:        3.79        2.47        2.13        1.46
 Organic Carbon [weight %]:        2.20        0.90        0.30        0.20
 Clay           [weight %]:       27.00       37.00       46.00       39.00
 Silt           [weight %]:       55.00       48.00       38.00       44.00
 Sand           [weight %]:       18.00       15.00       16.00       17.00
 Rock Fragments   [vol. %]:        0.00        0.00        0.00        0.00
 Soil Albedo (Moist)      :        0.09        0.22        0.33        0.35
 Erosion K                :        0.16        0.16        0.16        0.16
 Salinity (EC, Form 5)    :        0.00        0.00        0.00        0.00
                              
