 .chm file Watershed HRU:90 Subbasin:16 HRU:3 Luse:CORN Soil: HUO Slope: 0-2 20/07/2012 12:00:00 AM ArcSWAT 2009.93.7
Soil Nutrient Data
 Soil Layer               :           1           2           3           4           5           6           7           8           9          10
 Soil NO3 [mg/kg]         :       22.00       22.00       22.00       22.00       22.00       22.00       22.00       22.00       22.00       22.00
 Soil organic N [mg/kg]   :     2500.00     2500.00     2500.00     2500.00     2500.00     2500.00     2500.00     2500.00     2500.00     2500.00
 Soil labile P [mg/kg]    :       20.00       20.00       20.00       20.00       20.00       20.00       20.00       20.00       20.00       20.00
 Soil organic P [mg/kg]   :      500.00      500.00      500.00      500.00      500.00      500.00      500.00      500.00      500.00      500.00
 Phosphorus perc coef     :       10.00       10.00       10.00       10.00       10.00       10.00       10.00       10.00       10.00       10.00
Soil Pesticide Data
 Pesticide  Pst on plant    Pst in 1st soil layer Pst enrichment
   #           [kg/ha]           [kg/ha]           [kg/ha]
   0              0.00              0.00              0.00
   0              0.00              0.00              0.00
   0              0.00              0.00              0.00
   0              0.00              0.00              0.00
   0              0.00              0.00              0.00
   0              0.00              0.00              0.00
   0              0.00              0.00              0.00
   0              0.00              0.00              0.00
   0              0.00              0.00              0.00
   0              0.00              0.00              0.00
