 .Sol file Watershed HRU:161 Subbasin:24 HRU:2 Luse:SOYB Soil: BAY Slope: 0-2 20/07/2012 12:00:00 AM ArcSWAT 2009.93.7
 Soil Name: BAY
 Soil Hydrologic Group: B
 Maximum rooting depth(m) : 1000.00
 Porosity fraction from which anions are excluded: 0.500
 Crack volume potential of        0.00
 Texture 1                : SaL, LSa, SaL, LSa
 Depth                [mm]:      180.00      280.00      410.00     1000.00
 Bulk Density Moist [g/cc]:        1.06        1.41        1.47        1.49
 Ave. AW Incl. Rock Frag  :        0.23        0.14        0.13        0.13
 Ksat. (est.)      [mm/hr]:       31.43       15.47       13.00       14.27
 Organic Carbon [weight %]:        3.10        1.00        1.10        0.60
 Clay           [weight %]:       12.00       14.00       15.00       13.00
 Silt           [weight %]:       27.00       23.00       20.00       25.00
 Sand           [weight %]:       61.00       63.00       65.00       62.00
 Rock Fragments   [vol. %]:        0.00        0.00        0.00        0.00
 Soil Albedo (Moist)      :        0.05        0.20        0.19        0.26
 Erosion K                :        0.11        0.11        0.11        0.11
 Salinity (EC, Form 5)    :        0.00        0.00        0.00        0.00
                              
