 .Sol file Watershed HRU:211 Subbasin:31 HRU:4 Luse:FRSE Soil: ZAL Slope: 2-5 20/07/2012 12:00:00 AM ArcSWAT 2009.93.7
 Soil Name: ZAL
 Soil Hydrologic Group: B
 Maximum rooting depth(m) : 1000.00
 Porosity fraction from which anions are excluded: 0.500
 Crack volume potential of        0.00
 Texture 1                : LSa, SaL
 Depth                [mm]:      190.00      270.00      420.00     1000.00
 Bulk Density Moist [g/cc]:        1.08        1.39        1.39        1.49
 Ave. AW Incl. Rock Frag  :        0.29        0.18        0.19        0.11
 Ksat. (est.)      [mm/hr]:        4.94        3.11        3.91        2.18
 Organic Carbon [weight %]:        3.90        1.00        0.70        0.00
 Clay           [weight %]:       25.00       23.00       21.00       32.00
 Silt           [weight %]:       60.00       57.00       52.00       50.00
 Sand           [weight %]:       15.00       20.00       27.00       18.00
 Rock Fragments   [vol. %]:        0.00        0.00        0.00        0.00
 Soil Albedo (Moist)      :        0.03        0.20        0.25        0.40
 Erosion K                :        0.06        0.06        0.06        0.06
 Salinity (EC, Form 5)    :        0.00        0.00        0.00        0.00
                              
