 .Sol file Watershed HRU:295 Subbasin:39 HRU:6 Luse:SOYB Soil: BKN Slope: 2-5 20/07/2012 12:00:00 AM ArcSWAT 2009.93.7
 Soil Name: BKN
 Soil Hydrologic Group: D
 Maximum rooting depth(m) : 1000.00
 Porosity fraction from which anions are excluded: 0.500
 Crack volume potential of        0.00
 Texture 1                : CL, SiCL, SiCL
 Depth                [mm]:      250.00      650.00     1000.00
 Bulk Density Moist [g/cc]:        1.27        1.47        1.61
 Ave. AW Incl. Rock Frag  :        0.18        0.05        0.02
 Ksat. (est.)      [mm/hr]:        3.36        2.05        1.44
 Organic Carbon [weight %]:        2.00        0.60        0.00
 Clay           [weight %]:       37.00       51.00       43.00
 Silt           [weight %]:       47.00       38.00       41.00
 Sand           [weight %]:       16.00       11.00       16.00
 Rock Fragments   [vol. %]:        0.00        0.00        0.00
 Soil Albedo (Moist)      :        0.10        0.26        0.40
 Erosion K                :        0.16        0.16        0.16
 Salinity (EC, Form 5)    :        0.00        0.00        0.00
                              
