 .Sol file Watershed HRU:238 Subbasin:35 HRU:3 Luse:SOYB Soil: BUF Slope: 0-2 20/07/2012 12:00:00 AM ArcSWAT 2009.93.7
 Soil Name: BUF
 Soil Hydrologic Group: A
 Maximum rooting depth(m) : 1000.00
 Porosity fraction from which anions are excluded: 0.500
 Crack volume potential of        0.00
 Texture 1                : L, LSa(gr), SaL(gr)
 Depth                [mm]:      220.00      300.00      480.00      500.00     1000.00
 Bulk Density Moist [g/cc]:        1.26        1.39        1.47        1.47        1.49
 Ave. AW Incl. Rock Frag  :        0.23        0.19        0.11        0.13        0.12
 Ksat. (est.)      [mm/hr]:       11.57        0.88        3.33        7.14       24.54
 Organic Carbon [weight %]:        2.10        0.20        0.80        0.50        0.20
 Clay           [weight %]:       12.00       14.00       32.00       21.00        9.00
 Silt           [weight %]:       53.00       47.00       25.00       22.00       23.00
 Sand           [weight %]:       35.00       39.00       43.00       57.00       68.00
 Rock Fragments   [vol. %]:        0.00        0.00        0.00        0.00        0.00
 Soil Albedo (Moist)      :        0.09        0.35        0.23        0.28        0.35
 Erosion K                :        0.14        0.14        0.14        0.14        0.14
 Salinity (EC, Form 5)    :        0.00        0.00        0.00        0.00        0.00
                              
